In line no 1, Inserting E with type INT_TYPE in symbol table.
In line no 2, Inserting X with type INT_TYPE in symbol table.
In line no 3, Inserting D with type INT_TYPE in symbol table.
Parsing finished!
============= INTERMEDIATE CODE===============
  0: start              -1
  1: ld_int             30
  2: store               0
  3: ld_int            100
  4: store               1
  5: ld_int             10
  6: ld_var              0
  7: sub                -1
  8: ld_var              1
  9: add                -1
 10: store               2
 11: ld_var              0
 12: ld_int              0
 13: gt                 13
 14: if_start           11
 15: ld_var              2
 16: ld_int              0
 17: gt                 17
 18: if_start           15
 19: print_int_value     2
 20: else_start         15
 21: print_int_value     1
 22: else_end           15
 23: else_start         11
 24: print_int_value     0
 25: else_end           11
 26: halt               -1
============= ASM CODE===============

;start -1
.686
.model flat, c
include C:\masm32\include\msvcrt.inc
includelib C:\masm32\lib\msvcrt.lib

.stack 200h
printf PROTO arg1:Ptr Byte, printlist:VARARG
scanf PROTO arg2:Ptr Byte, inputlist:VARARG

.data
output_integer_msg_format byte "%d", 0Ah, 0
output_string_msg_format byte "%s", 0Ah, 0
input_integer_format byte "%d",0

number sdword ?

.code

main proc
	push ebp
	mov ebp, esp
	sub ebp, 200
	mov ebx, ebp
	add ebx, 4

;ld_int 30
	mov eax, 30
	mov dword ptr [ebx], eax
	add ebx, 4


;store 0
	mov eax, [ebx-4]
	mov dword ptr [ebp-0], eax

;ld_int 100
	mov eax, 100
	mov dword ptr [ebx], eax
	add ebx, 4


;store 1
	mov eax, [ebx-4]
	mov dword ptr [ebp-4], eax

;ld_int 10
	mov eax, 10
	mov dword ptr [ebx], eax
	add ebx, 4


;ld_var 0
	mov eax, [ebp-0]
	mov dword ptr [ebx], eax
	add ebx, 4


;sub -1
	sub ebx, 4
	mov edx, [ebx]
	sub ebx, 4
	mov eax, [ebx]
	sub eax, edx
	mov dword ptr [ebx], eax
	add ebx, 4


;ld_var 1
	mov eax, [ebp-4]
	mov dword ptr [ebx], eax
	add ebx, 4


;add -1
	sub ebx, 4
	mov eax, [ebx]
	sub ebx, 4
	mov edx, [ebx]
	add eax, edx
	mov dword ptr [ebx], eax
	add ebx, 4


;store 2
	mov eax, [ebx-4]
	mov dword ptr [ebp-8], eax

;ld_var 0
	mov eax, [ebp-0]
	mov dword ptr [ebx], eax
	add ebx, 4


;ld_int 0
	mov eax, 0
	mov dword ptr [ebx], eax
	add ebx, 4


;gt 13
	sub ebx, 4
	mov eax, [ebx]
	sub ebx, 4
	mov edx, [ebx]
	cmp edx, eax
	jg LS13
	mov dword ptr [ebx], 0
	jmp LE13
	LS13: mov dword ptr [ebx], 1
	LE13: add ebx, 4



;if_start 11
	mov eax, [ebx-4]
	cmp eax, 0
	jle ELSE_START_LABEL_11


;ld_var 2
	mov eax, [ebp-8]
	mov dword ptr [ebx], eax
	add ebx, 4


;ld_int 0
	mov eax, 0
	mov dword ptr [ebx], eax
	add ebx, 4


;gt 17
	sub ebx, 4
	mov eax, [ebx]
	sub ebx, 4
	mov edx, [ebx]
	cmp edx, eax
	jg LS17
	mov dword ptr [ebx], 0
	jmp LE17
	LS17: mov dword ptr [ebx], 1
	LE17: add ebx, 4



;if_start 15
	mov eax, [ebx-4]
	cmp eax, 0
	jle ELSE_START_LABEL_15


;print_int_value 2
	push eax
	push ebx
	push ecx
	push edx
	push [ebp-8]
	push [ebp-4]
	push [ebp-0]
	push [ebp+4]
	push [ebp+8]
	push [ebp+12]
	push [ebp+16]
	push [ebp+20]
	push [ebp+24]
	push [ebp+28]
	push ebp
	mov eax, [ebp-8]
	INVOKE printf, ADDR output_integer_msg_format, eax
	pop ebp
	pop [ebp+28]
	pop [ebp+24]
	pop [ebp+20]
	pop [ebp+16]
	pop [ebp+12]
	pop [ebp+8]
	pop [ebp+4]
	pop [ebp-0]
	pop [ebp-4]
	pop [ebp-8]
	pop edx
	pop ecx
	pop ebx
	pop eax

;else_start 15
	jmp ELSE_END_LABEL_15
ELSE_START_LABEL_15:


;print_int_value 1
	push eax
	push ebx
	push ecx
	push edx
	push [ebp-8]
	push [ebp-4]
	push [ebp-0]
	push [ebp+4]
	push [ebp+8]
	push [ebp+12]
	push [ebp+16]
	push [ebp+20]
	push [ebp+24]
	push [ebp+28]
	push ebp
	mov eax, [ebp-4]
	INVOKE printf, ADDR output_integer_msg_format, eax
	pop ebp
	pop [ebp+28]
	pop [ebp+24]
	pop [ebp+20]
	pop [ebp+16]
	pop [ebp+12]
	pop [ebp+8]
	pop [ebp+4]
	pop [ebp-0]
	pop [ebp-4]
	pop [ebp-8]
	pop edx
	pop ecx
	pop ebx
	pop eax

;else_end 15
ELSE_END_LABEL_15:


;else_start 11
	jmp ELSE_END_LABEL_11
ELSE_START_LABEL_11:


;print_int_value 0
	push eax
	push ebx
	push ecx
	push edx
	push [ebp-8]
	push [ebp-4]
	push [ebp-0]
	push [ebp+4]
	push [ebp+8]
	push [ebp+12]
	push [ebp+16]
	push [ebp+20]
	push [ebp+24]
	push [ebp+28]
	push ebp
	mov eax, [ebp-0]
	INVOKE printf, ADDR output_integer_msg_format, eax
	pop ebp
	pop [ebp+28]
	pop [ebp+24]
	pop [ebp+20]
	pop [ebp+16]
	pop [ebp+12]
	pop [ebp+8]
	pop [ebp+4]
	pop [ebp-0]
	pop [ebp-4]
	pop [ebp-8]
	pop edx
	pop ecx
	pop ebx
	pop eax

;else_end 11
ELSE_END_LABEL_11:


;halt -1
	add ebp, 200
	mov esp, ebp
	pop ebp
	ret
main endp
end main
