In line no 2, Inserting x with type REAL_TYPE in symbol table.
In line no 3, Inserting i with type INT_TYPE in symbol table.
Syntax error at line 13
Parsing finished!
============= INTERMEDIATE CODE===============
  0: start              -1
  1: ld_int              0
  2: store               0
  3: ld_int              1
  4: store               1
  5: ld_var              0
  6: ld_var              1
  7: add                -1
  8: ld_int              1
  9: add                -1
 10: store               0
 11: while_label        11
 12: ld_var              1
 13: ld_int             10
 14: lt                 14
 15: while_start        11
 16: ld_var              0
 17: ld_int             10
 18: add                -1
 19: store               0
 20: ld_var              1
 21: ld_int              1
 22: add                -1
 23: store               1
 24: while_end          11
 25: ld_var              0
 26: ld_int              1
 27: gt                 27
 28: if_start           25
 29: print_int_value     0
 30: else_start         25
 31: else_end           25
 32: halt               -1
============= ASM CODE===============

;start -1
.686
.model flat, c
include C:\masm32\include\msvcrt.inc
includelib C:\masm32\lib\msvcrt.lib

.stack 200h
printf PROTO arg1:Ptr Byte, printlist:VARARG
scanf PROTO arg2:Ptr Byte, inputlist:VARARG

.data
output_integer_msg_format byte "%d", 0Ah, 0
output_string_msg_format byte "%s", 0Ah, 0
input_integer_format byte "%d",0

number sdword ?

.code

main proc
	push ebp
	mov ebp, esp
	sub ebp, 200
	mov ebx, ebp
	add ebx, 4

;ld_int 0
	mov eax, 0
	mov dword ptr [ebx], eax
	add ebx, 4


;store 0
	mov eax, [ebx-4]
	mov dword ptr [ebp-0], eax

;ld_int 1
	mov eax, 1
	mov dword ptr [ebx], eax
	add ebx, 4


;store 1
	mov eax, [ebx-4]
	mov dword ptr [ebp-4], eax

;ld_var 0
	mov eax, [ebp-0]
	mov dword ptr [ebx], eax
	add ebx, 4


;ld_var 1
	mov eax, [ebp-4]
	mov dword ptr [ebx], eax
	add ebx, 4


;add -1
	sub ebx, 4
	mov eax, [ebx]
	sub ebx, 4
	mov edx, [ebx]
	add eax, edx
	mov dword ptr [ebx], eax
	add ebx, 4


;ld_int 1
	mov eax, 1
	mov dword ptr [ebx], eax
	add ebx, 4


;add -1
	sub ebx, 4
	mov eax, [ebx]
	sub ebx, 4
	mov edx, [ebx]
	add eax, edx
	mov dword ptr [ebx], eax
	add ebx, 4


;store 0
	mov eax, [ebx-4]
	mov dword ptr [ebp-0], eax

;while_label 11
WHILE_START_LABEL_11:


;ld_var 1
	mov eax, [ebp-4]
	mov dword ptr [ebx], eax
	add ebx, 4


;ld_int 10
	mov eax, 10
	mov dword ptr [ebx], eax
	add ebx, 4


;lt 14
	sub ebx, 4
	mov eax, [ebx]
	sub ebx, 4
	mov edx, [ebx]
	cmp edx, eax
	jle LS14
	mov dword ptr [ebx], 0
	jmp LE14
	LS14: mov dword ptr [ebx], 1
	LE14: add ebx, 4



;while_start 11
	mov eax, [ebx-4]
	cmp eax, 0
	jle WHILE_END_LABEL_11


;ld_var 0
	mov eax, [ebp-0]
	mov dword ptr [ebx], eax
	add ebx, 4


;ld_int 10
	mov eax, 10
	mov dword ptr [ebx], eax
	add ebx, 4


;add -1
	sub ebx, 4
	mov eax, [ebx]
	sub ebx, 4
	mov edx, [ebx]
	add eax, edx
	mov dword ptr [ebx], eax
	add ebx, 4


;store 0
	mov eax, [ebx-4]
	mov dword ptr [ebp-0], eax

;ld_var 1
	mov eax, [ebp-4]
	mov dword ptr [ebx], eax
	add ebx, 4


;ld_int 1
	mov eax, 1
	mov dword ptr [ebx], eax
	add ebx, 4


;add -1
	sub ebx, 4
	mov eax, [ebx]
	sub ebx, 4
	mov edx, [ebx]
	add eax, edx
	mov dword ptr [ebx], eax
	add ebx, 4


;store 1
	mov eax, [ebx-4]
	mov dword ptr [ebp-4], eax

;while_end 11
	jmp WHILE_START_LABEL_11
WHILE_END_LABEL_11:


;ld_var 0
	mov eax, [ebp-0]
	mov dword ptr [ebx], eax
	add ebx, 4


;ld_int 1
	mov eax, 1
	mov dword ptr [ebx], eax
	add ebx, 4


;gt 27
	sub ebx, 4
	mov eax, [ebx]
	sub ebx, 4
	mov edx, [ebx]
	cmp edx, eax
	jg LS27
	mov dword ptr [ebx], 0
	jmp LE27
	LS27: mov dword ptr [ebx], 1
	LE27: add ebx, 4



;if_start 25
	mov eax, [ebx-4]
	cmp eax, 0
	jle ELSE_START_LABEL_25


;print_int_value 0
	push eax
	push ebx
	push ecx
	push edx
	push [ebp-4]
	push [ebp-0]
	push [ebp+4]
	push [ebp+8]
	push [ebp+12]
	push [ebp+16]
	push [ebp+20]
	push [ebp+24]
	push [ebp+28]
	push [ebp+32]
	push [ebp+36]
	push ebp
	mov eax, [ebp-0]
	INVOKE printf, ADDR output_integer_msg_format, eax
	pop ebp
	pop [ebp+36]
	pop [ebp+32]
	pop [ebp+28]
	pop [ebp+24]
	pop [ebp+20]
	pop [ebp+16]
	pop [ebp+12]
	pop [ebp+8]
	pop [ebp+4]
	pop [ebp-0]
	pop [ebp-4]
	pop edx
	pop ecx
	pop ebx
	pop eax

;else_start 25
	jmp ELSE_END_LABEL_25
ELSE_START_LABEL_25:


;else_end 25
ELSE_END_LABEL_25:


;halt -1
	add ebp, 200
	mov esp, ebp
	pop ebp
	ret
main endp
end main
